**
** Heading +++++++++++++++++++++++++++++++++++++++++++++++++
**
*Heading
Hash: wqFXLvsm, Date: 09/04/2025, Unit system: MM_TON_S_C
**
** Nodes +++++++++++++++++++++++++++++++++++++++++++++++++++
**
*Node
1, 8.22000000E-001, 3.92500000E-001, 0.00000000E+000
2, 8.22000000E-001, 3.92500000E-001, 1.00000000E-003
3, 8.22000000E-001, 6.07500000E-001, 0.00000000E+000
4, 8.22000000E-001, 6.07500000E-001, 1.00000000E-003
5, 8.42000000E-001, 3.92500000E-001, 0.00000000E+000
6, 8.42000000E-001, 3.92500000E-001, 1.00000000E-003
7, 1.17800000E+000, 6.07500000E-001, 1.00000000E-003
8, 8.42000000E-001, 5.87500000E-001, 1.00000000E-003
9, 1.15800000E+000, 5.87500000E-001, 1.00000000E-003
10, 1.15800000E+000, 3.92500000E-001, 1.00000000E-003
11, 1.17800000E+000, 3.92500000E-001, 1.00000000E-003
12, 1.17800000E+000, 6.07500000E-001, 0.00000000E+000
13, 8.42000000E-001, 5.87500000E-001, 0.00000000E+000
14, 1.15800000E+000, 5.87500000E-001, 0.00000000E+000
15, 1.15800000E+000, 3.92500000E-001, 0.00000000E+000
16, 1.17800000E+000, 3.92500000E-001, 0.00000000E+000
17, 8.22000000E-001, 3.97660000E-001, 0.00000000E+000
18, 8.22000000E-001, 4.02605000E-001, 0.00000000E+000
19, 8.22000000E-001, 4.07550000E-001, 0.00000000E+000
20, 8.22000000E-001, 4.12710000E-001, 0.00000000E+000
** ... 21068 like lines cut
**
** Elements ++++++++++++++++++++++++++++++++++++++++++++++++
**
*Element, Type=C3D10, Elset=Solid_part-2
4961, 11717, 12723, 12586, 12676, 19579, 18402, 19580, 19581, 18405, 18262
4962, 12720, 12818, 12748, 11825, 18700, 18699, 18482, 19582, 19583, 19584
4963, 12766, 12837, 11759, 12767, 18760, 19585, 19586, 18547, 18761, 19587
4964, 12424, 11487, 11532, 12522, 19588, 14843, 19589, 17787, 19590, 19591
4965, 11401, 12365, 11523, 11399, 19592, 19593, 14660, 14267, 19594, 14659
4966, 11981, 12901, 11911, 12966, 19595, 19596, 16070, 19597, 19154, 19598
4967, 12161, 12281, 11347, 12349, 17044, 19599, 19600, 17240, 17293, 19601
4968, 11816, 12732, 12707, 11734, 19602, 18433, 19603, 15557, 19604, 19605
4969, 12344, 11337, 11439, 12276, 19606, 14399, 19607, 17231, 19608, 19609
4970, 11907, 12907, 11918, 11976, 19610, 19611, 15869, 16052, 19612, 16053
4971, 11976, 12973, 12908, 12907, 19613, 19175, 19614, 19612, 19174, 18980
4972, 11383, 11264, 12311, 12312, 14216, 19615, 19616, 19617, 19618, 17127
4973, 12256, 12255, 12135, 11192, 16980, 16976, 16978, 19619, 19620, 19621
4974, 12906, 11991, 11918, 12972, 19622, 16099, 19623, 19171, 19624, 19625
4975, 11721, 11636, 12669, 11635, 15265, 19626, 19627, 15264, 15007, 19628
4976, 12638, 12716, 11728, 12740, 18382, 19629, 19630, 18459, 18648, 19631
4977, 11197, 12145, 10957, 11286, 19632, 19633, 13654, 13978, 19634, 13896
4978, 12902, 12967, 12002, 12968, 19157, 19635, 19636, 19159, 19161, 19637
4979, 12507, 12393, 11461, 12466, 17739, 19638, 19639, 17738, 17606, 19640
4980, 12875, 12882, 12787, 11883, 18899, 18898, 18875, 19641, 19642, 19643
** ... 6110 like lines cut
*Element, Type=C3D10, Elset=Solid_part-1
1, 1193, 503, 249, 502, 4314, 6230, 6245, 4313, 4312, 6231
2, 110, 363, 364, 1285, 3686, 3685, 3687, 6246, 4665, 4664
3, 458, 1148, 205, 459, 4135, 6247, 5943, 4134, 4136, 5942
4, 1096, 684, 60, 683, 6248, 2060, 6249, 6250, 2062, 2059
5, 1063, 618, 366, 1286, 6251, 6252, 3901, 4971, 6253, 4666
6, 977, 783, 1440, 1534, 3461, 6254, 6255, 6256, 6257, 5757
7, 617, 112, 365, 111, 1793, 3692, 6258, 1792, 1791, 3690
8, 911, 857, 1478, 912, 3319, 6259, 6260, 2934, 3318, 6261
9, 1037, 1553, 1448, 1038, 6262, 5841, 6263, 3501, 6264, 6265
10, 1543, 1451, 804, 1043, 5750, 6266, 6267, 6268, 6269, 3515
11, 628, 1067, 375, 1291, 6270, 3908, 6271, 6272, 4848, 4677
12, 911, 1159, 1362, 1478, 6273, 5125, 6274, 6260, 5518, 5477
13, 120, 626, 374, 121, 1828, 6275, 3717, 1827, 1829, 3719
14, 1508, 1561, 691, 985, 5772, 6276, 6277, 6278, 6279, 3151
15, 724, 105, 1117, 102, 2182, 6280, 6281, 6282, 1757, 4013
16, 858, 1161, 746, 913, 6283, 6284, 2805, 3321, 6285, 3322
17, 724, 102, 1117, 1118, 6282, 4013, 6281, 6286, 4014, 4016
18, 1106, 703, 1408, 1513, 6287, 6288, 5088, 5491, 6289, 5718
19, 925, 1069, 926, 1482, 6290, 6291, 2976, 6292, 5366, 6293
20, 1268, 343, 828, 596, 6294, 2537, 6295, 4596, 6022, 6296
** ... 3760 like lines cut
**
** Node sets +++++++++++++++++++++++++++++++++++++++++++++++
**
*Nset, Nset=Nchtnodes
1, 2, 3, 4, 5, 6, 7, 8, 9, 10, 11, 12, 13, 14, 15, 16, 
17, 18, 19, 20, 21, 22, 23, 24, 25, 26, 27, 28, 29, 30, 31, 32, 
33, 34, 35, 36, 37, 38, 39, 40, 41, 42, 43, 44, 45, 46, 47, 48, 
49, 50, 51, 52, 53, 54, 55, 56, 57, 58, 59, 60, 61, 62, 63, 64, 
65, 66, 67, 68, 69, 70, 71, 72, 73, 74, 75, 76, 77, 78, 79, 80, 
81, 82, 83, 84, 85, 86, 87, 88, 89, 90, 91, 92, 93, 94, 95, 96, 
97, 98, 99, 100, 101, 102, 103, 104, 105, 106, 107, 108, 109, 110, 111, 112, 
113, 114, 115, 116, 117, 118, 119, 120, 121, 122, 123, 124, 125, 126, 127, 128, 
129, 130, 131, 132, 133, 134, 135, 136, 137, 138, 139, 140, 141, 142, 143, 144, 
145, 146, 147, 148, 149, 150, 151, 152, 153, 154, 155, 156, 157, 158, 159, 160, 
161, 162, 163, 164, 165, 166, 167, 168, 169, 170, 171, 172, 173, 174, 175, 176, 
177, 178, 179, 180, 181, 182, 183, 184, 185, 186, 187, 188, 189, 190, 191, 192, 
193, 194, 195, 196, 197, 198, 199, 200, 201, 202, 203, 204, 205, 206, 207, 208, 
209, 210, 211, 212, 213, 214, 215, 216, 217, 218, 219, 220, 221, 222, 223, 224, 
225, 226, 227, 228, 229, 230, 231, 232, 233, 234, 235, 236, 237, 238, 239, 240, 
241, 242, 243, 244, 245, 246, 247, 248, 249, 250, 251, 252, 253, 254, 255, 256, 
257, 258, 259, 260, 261, 262, 263, 264, 265, 266, 267, 268, 269, 270, 271, 272, 
273, 274, 275, 276, 277, 278, 279, 280, 281, 282, 283, 284, 285, 286, 287, 288, 
289, 290, 291, 292, 293, 294, 295, 296, 297, 298, 299, 300, 301, 302, 303, 304, 
305, 306, 307, 308, 309, 310, 311, 312, 313, 314, 315, 316, 317, 318, 319, 320, 
** ... 144 like lines cut
*Nset, Nset=Internal_Selection-1_Brood_Temperature
10933, 10934, 10935, 10936, 10937, 10938, 10939, 10940, 10941, 10942, 10943, 10944, 10945, 10946, 10947, 10948, 
10949, 10950, 10951, 10952, 10953, 10954, 10955, 10956, 10957, 10958, 10959, 10960, 10961, 10962, 10963, 10964, 
10965, 10966, 10967, 10968, 10969, 10970, 10971, 10972, 10973, 10974, 10975, 10976, 10977, 10978, 10979, 10980, 
10981, 10982, 10983, 10984, 10985, 10986, 10987, 10988, 10989, 10990, 10991, 10992, 10993, 10994, 10995, 10996, 
10997, 10998, 10999, 11000, 11001, 11002, 11003, 11004, 11005, 11006, 11007, 11008, 11009, 11010, 11011, 11012, 
11013, 11014, 11015, 11016, 11017, 11018, 11019, 11020, 11021, 11022, 11023, 11024, 11025, 11026, 11027, 11028, 
11029, 11030, 11031, 11032, 11033, 11034, 11035, 11036, 11037, 11038, 11039, 11040, 11041, 11042, 11043, 11044, 
11045, 11046, 11047, 11048, 11049, 11050, 11051, 11052, 11053, 11054, 11055, 11056, 11057, 11058, 11059, 11060, 
11061, 11062, 11063, 11064, 11065, 11066, 11067, 11068, 11069, 11070, 11071, 11072, 11073, 11074, 11075, 11076, 
11077, 11078, 11079, 11080, 11081, 11082, 11083, 11084, 11085, 11086, 11087, 11088, 11089, 11090, 11091, 11092, 
11093, 11094, 11095, 11096, 11097, 11098, 11099, 11100, 11101, 11102, 11103, 11104, 11105, 11106, 11107, 11108, 
11109, 11110, 11111, 11112, 11113, 11114, 11115, 11116, 11117, 11118, 11119, 11120, 11121, 11122, 11123, 11124, 
11125, 11126, 11127, 11128, 11129, 11130, 11131, 11132, 11133, 11134, 11135, 11136, 11137, 11138, 11139, 11140, 
11141, 11142, 11143, 11144, 11145, 11146, 11147, 11148, 11149, 11150, 11151, 11152, 11153, 11154, 11155, 11156, 
11157, 11158, 11159, 11160, 11161, 11162, 11163, 11164, 11165, 11166, 11167, 11168, 11169, 11170, 11171, 11172, 
11173, 11174, 11175, 11176, 11177, 11178, 11179, 11180, 11181, 11182, 11183, 11184, 11185, 11186, 11187, 11188, 
11189, 11190, 11191, 11192, 11193, 11194, 11195, 11196, 11197, 11198, 11199, 11200, 11201, 11202, 11203, 11204, 
11205, 11206, 11207, 11208, 11209, 11210, 11211, 11212, 11213, 11214, 11215, 11216, 11217, 11218, 11219, 11220, 
11221, 11222, 11223, 11224, 11225, 11226, 11227, 11228, 11229, 11230, 11231, 11232, 11233, 11234, 11235, 11236, 
11237, 11238, 11239, 11240, 11241, 11242, 11243, 11244, 11245, 11246, 11247, 11248, 11249, 11250, 11251, 11252, 
** ... 769 like lines cut
*Nset, Nset=Internal_Selection-1_Solid_Temperature
1, 2, 3, 4, 5, 6, 7, 8, 9, 10, 11, 12, 13, 14, 15, 16, 
17, 18, 19, 20, 21, 22, 23, 24, 25, 26, 27, 28, 29, 30, 31, 32, 
33, 34, 35, 36, 37, 38, 39, 40, 41, 42, 43, 44, 45, 46, 47, 48, 
49, 50, 51, 52, 53, 54, 55, 56, 57, 58, 59, 60, 61, 62, 63, 64, 
65, 66, 67, 68, 69, 70, 71, 72, 73, 74, 75, 76, 77, 78, 79, 80, 
81, 82, 83, 84, 85, 86, 87, 88, 89, 90, 91, 92, 93, 94, 95, 96, 
97, 98, 99, 100, 101, 102, 103, 104, 105, 106, 107, 108, 109, 110, 111, 112, 
113, 114, 115, 116, 117, 118, 119, 120, 121, 122, 123, 124, 125, 126, 127, 128, 
129, 130, 131, 132, 133, 134, 135, 136, 137, 138, 139, 140, 141, 142, 143, 144, 
145, 146, 147, 148, 149, 150, 151, 152, 153, 154, 155, 156, 157, 158, 159, 160, 
161, 162, 163, 164, 165, 166, 167, 168, 169, 170, 171, 172, 173, 174, 175, 176, 
177, 178, 179, 180, 181, 182, 183, 184, 185, 186, 187, 188, 189, 190, 191, 192, 
193, 194, 195, 196, 197, 198, 199, 200, 201, 202, 203, 204, 205, 206, 207, 208, 
209, 210, 211, 212, 213, 214, 215, 216, 217, 218, 219, 220, 221, 222, 223, 224, 
225, 226, 227, 228, 229, 230, 231, 232, 233, 234, 235, 236, 237, 238, 239, 240, 
241, 242, 243, 244, 245, 246, 247, 248, 249, 250, 251, 252, 253, 254, 255, 256, 
257, 258, 259, 260, 261, 262, 263, 264, 265, 266, 267, 268, 269, 270, 271, 272, 
273, 274, 275, 276, 277, 278, 279, 280, 281, 282, 283, 284, 285, 286, 287, 288, 
289, 290, 291, 292, 293, 294, 295, 296, 297, 298, 299, 300, 301, 302, 303, 304, 
305, 306, 307, 308, 309, 310, 311, 312, 313, 314, 315, 316, 317, 318, 319, 320, 
** ... 510 like lines cut
*Nset, Nset=solidchtnodes
1, 2, 3, 4, 5, 6, 7, 8, 9, 10, 11, 12, 13, 14, 15, 16, 
17, 18, 19, 20, 21, 22, 23, 24, 25, 26, 27, 28, 29, 30, 31, 32, 
33, 34, 35, 36, 37, 38, 39, 40, 41, 42, 43, 44, 45, 46, 47, 48, 
49, 50, 51, 52, 53, 54, 55, 56, 57, 58, 59, 60, 61, 62, 63, 64, 
65, 66, 67, 68, 69, 70, 71, 72, 73, 74, 75, 76, 77, 78, 79, 80, 
81, 82, 83, 84, 85, 86, 87, 88, 89, 90, 91, 92, 93, 94, 95, 96, 
97, 98, 99, 100, 101, 102, 103, 104, 105, 106, 107, 108, 109, 110, 111, 112, 
113, 114, 115, 116, 117, 118, 119, 120, 121, 122, 123, 124, 125, 126, 127, 128, 
129, 130, 131, 132, 133, 134, 135, 136, 137, 138, 139, 140, 141, 142, 143, 144, 
145, 146, 147, 148, 149, 150, 151, 152, 153, 154, 155, 156, 157, 158, 159, 160, 
161, 162, 163, 164, 165, 166, 167, 168, 169, 170, 171, 172, 173, 174, 175, 176, 
177, 178, 179, 180, 181, 182, 183, 184, 185, 186, 187, 188, 189, 190, 191, 192, 
193, 194, 195, 196, 197, 198, 199, 200, 201, 202, 203, 204, 205, 206, 207, 208, 
209, 210, 211, 212, 213, 214, 215, 216, 217, 218, 219, 220, 221, 222, 223, 224, 
225, 226, 227, 228, 229, 230, 231, 232, 233, 234, 235, 236, 237, 238, 239, 240, 
241, 242, 243, 244, 245, 246, 247, 248, 249, 250, 251, 252, 253, 254, 255, 256, 
257, 258, 259, 260, 261, 262, 263, 264, 265, 266, 267, 268, 269, 270, 271, 272, 
273, 274, 275, 276, 277, 278, 279, 280, 281, 282, 283, 284, 285, 286, 287, 288, 
289, 290, 291, 292, 293, 294, 295, 296, 297, 298, 299, 300, 301, 302, 303, 304, 
305, 306, 307, 308, 309, 310, 311, 312, 313, 314, 315, 316, 317, 318, 319, 320, 
** ... 95 like lines cut
*Nset, Nset=broodchtnodes
10933, 10934, 10935, 10936, 10937, 10938, 10939, 10940, 10941, 10942, 10943, 10944, 10945, 10946, 10947, 10948, 
10949, 10950, 10951, 10952, 10953, 10954, 10955, 10956, 10957, 10958, 10959, 10960, 10961, 10962, 10963, 10964, 
10965, 10966, 10967, 10968, 10969, 10970, 10971, 10972, 10973, 10974, 10975, 10976, 10977, 10978, 10979, 10980, 
10981, 10982, 10983, 10984, 10985, 10986, 10987, 10988, 10989, 10990, 10991, 10992, 10993, 10994, 10995, 10996, 
10997, 10998, 10999, 11000, 11001, 11002, 11003, 11004, 11005, 11006, 11007, 11008, 11009, 11010, 11011, 11012, 
11013, 11014, 11015, 11016, 11017, 11018, 11019, 11020, 11021, 11022, 11023, 11024, 11025, 11026, 11027, 11028, 
11029, 11030, 11031, 11032, 11033, 11034, 11035, 11036, 11037, 11038, 11039, 11040, 11041, 11042, 11043, 11044, 
11045, 11046, 11047, 11048, 11049, 11050, 11051, 11052, 11053, 11054, 11055, 11056, 11057, 11058, 11059, 11060, 
11061, 11062, 11063, 11064, 11065, 11066, 11067, 11068, 11069, 11070, 11071, 11072, 11073, 11074, 11075, 11076, 
11077, 11078, 11079, 11080, 11081, 11082, 11083, 11084, 11085, 11086, 11087, 11088, 11089, 11090, 11091, 11092, 
11093, 11094, 11095, 11096, 11097, 11098, 11099, 11100, 11101, 11102, 11103, 11104, 11105, 11106, 11107, 11108, 
11109, 11110, 11111, 11112, 11113, 11114, 11115, 11116, 11117, 11118, 11119, 11120, 11121, 11122, 11123, 11124, 
11125, 11126, 11127, 11128, 11129, 11130, 11131, 11132, 11133, 11134, 11135, 11136, 11137, 11138, 11139, 11140, 
11141, 11142, 11143, 11144, 11145, 11146, 11147, 11148, 11149, 11150, 11151, 11152, 11153, 11154, 11155, 11156, 
11157, 11158, 11159, 11160, 11161, 11162, 11163, 11164, 11165, 11166, 11167, 11168, 11169, 11170, 11171, 11172, 
11173, 11174, 11175, 11176, 11177, 11178, 11179, 11180, 11181, 11182, 11183, 11184, 11185, 11186, 11187, 11188, 
13102, 13103, 13104, 13105, 13106, 13107, 13108, 13109, 13110, 13111, 13112, 13113, 13114, 13115, 13116, 13117, 
13118, 13119, 13120, 13121, 13122, 13123, 13124, 13125, 13126, 13127, 13128, 13129, 13130, 13131, 13132, 13133, 
13134, 13135, 13136, 13137, 13138, 13139, 13140, 13141, 13142, 13143, 13144, 13145, 13146, 13147, 13148, 13149, 
13150, 13151, 13152, 13153, 13154, 13155, 13156, 13157, 13158, 13159, 13160, 13161, 13162, 13163, 13164, 13165, 
** ... 29 like lines cut
*Nset, Nset=Internal-1_Brood_Fluid_Elems
10933, 10934, 10935, 10936, 10937, 10938, 10939, 10940, 10941, 10942, 10943, 10944, 10945, 10946, 10947, 10948, 
10949, 10950, 10951, 10952, 10953, 10954, 10955, 10956, 10957, 10958, 10959, 10960, 10961, 10962, 10963, 10964, 
10965, 10966, 10967, 10968, 10969, 10970, 10971, 10972, 10973, 10974, 10975, 10976, 10977, 10978, 10979, 10980, 
10981, 10982, 10983, 10984, 10985, 10986, 10987, 10988, 10989, 10990, 10991, 10992, 10993, 10994, 10995, 10996, 
10997, 10998, 10999, 11000, 11001, 11002, 11003, 11004, 11005, 11006, 11007, 11008, 11009, 11010, 11011, 11012, 
11013, 11014, 11015, 11016, 11017, 11018, 11019, 11020, 11021, 11022, 11023, 11024, 11025, 11026, 11027, 11028, 
11029, 11030, 11031, 11032, 11033, 11034, 11035, 11036, 11037, 11038, 11039, 11040, 11041, 11042, 11043, 11044, 
11045, 11046, 11047, 11048, 11049, 11050, 11051, 11052, 11053, 11054, 11055, 11056, 11057, 11058, 11059, 11060, 
11061, 11062, 11063, 11064, 11065, 11066, 11067, 11068, 11069, 11070, 11071, 11072, 11073, 11074, 11075, 11076, 
11077, 11078, 11079, 11080, 11081, 11082, 11083, 11084, 11085, 11086, 11087, 11088, 11089, 11090, 11091, 11092, 
11093, 11094, 11095, 11096, 11097, 11098, 11099, 11100, 11101, 11102, 11103, 11104, 11105, 11106, 11107, 11108, 
11109, 11110, 11111, 11112, 11113, 11114, 11115, 11116, 11117, 11118, 11119, 11120, 11121, 11122, 11123, 11124, 
11125, 11126, 11127, 11128, 11129, 11130, 11131, 11132, 11133, 11134, 11135, 11136, 11137, 11138, 11139, 11140, 
11141, 11142, 11143, 11144, 11145, 11146, 11147, 11148, 11149, 11150, 11151, 11152, 11153, 11154, 11155, 11156, 
11157, 11158, 11159, 11160, 11161, 11162, 11163, 11164, 11165, 11166, 11167, 11168, 11169, 11170, 11171, 11172, 
11173, 11174, 11175, 11176, 11177, 11178, 11179, 11180, 11181, 11182, 11183, 11184, 11185, 11186, 11187, 11188, 
13102, 13103, 13104, 13105, 13106, 13107, 13108, 13109, 13110, 13111, 13112, 13113, 13114, 13115, 13116, 13117, 
13118, 13119, 13120, 13121, 13122, 13123, 13124, 13125, 13126, 13127, 13128, 13129, 13130, 13131, 13132, 13133, 
13134, 13135, 13136, 13137, 13138, 13139, 13140, 13141, 13142, 13143, 13144, 13145, 13146, 13147, 13148, 13149, 
13150, 13151, 13152, 13153, 13154, 13155, 13156, 13157, 13158, 13159, 13160, 13161, 13162, 13163, 13164, 13165, 
** ... 29 like lines cut
*Nset, Nset=Internal-1_Brood_Fluid_Nodes
10933, 10934, 10935, 10936, 10937, 10938, 10939, 10940, 10941, 10942, 10943, 10944, 10945, 10946, 10947, 10948, 
10949, 10950, 10951, 10952, 10953, 10954, 10955, 10956, 10957, 10958, 10959, 10960, 10961, 10962, 10963, 10964, 
10965, 10966, 10967, 10968, 10969, 10970, 10971, 10972, 10973, 10974, 10975, 10976, 10977, 10978, 10979, 10980, 
10981, 10982, 10983, 10984, 10985, 10986, 10987, 10988, 10989, 10990, 10991, 10992, 10993, 10994, 10995, 10996, 
10997, 10998, 10999, 11000, 11001, 11002, 11003, 11004, 11005, 11006, 11007, 11008, 11009, 11010, 11011, 11012, 
11013, 11014, 11015, 11016, 11017, 11018, 11019, 11020, 11021, 11022, 11023, 11024, 11025, 11026, 11027, 11028, 
11029, 11030, 11031, 11032, 11033, 11034, 11035, 11036, 11037, 11038, 11039, 11040, 11041, 11042, 11043, 11044, 
11045, 11046, 11047, 11048, 11049, 11050, 11051, 11052, 11053, 11054, 11055, 11056, 11057, 11058, 11059, 11060, 
11061, 11062, 11063, 11064, 11065, 11066, 11067, 11068, 11069, 11070, 11071, 11072, 11073, 11074, 11075, 11076, 
11077, 11078, 11079, 11080, 11081, 11082, 11083, 11084, 11085, 11086, 11087, 11088, 11089, 11090, 11091, 11092, 
11093, 11094, 11095, 11096, 11097, 11098, 11099, 11100, 11101, 11102, 11103, 11104, 11105, 11106, 11107, 11108, 
11109, 11110, 11111, 11112, 11113, 11114, 11115, 11116, 11117, 11118, 11119, 11120, 11121, 11122, 11123, 11124, 
11125, 11126, 11127, 11128, 11129, 11130, 11131, 11132, 11133, 11134, 11135, 11136, 11137, 11138, 11139, 11140, 
11141, 11142, 11143, 11144, 11145, 11146, 11147, 11148, 11149, 11150, 11151, 11152, 11153, 11154, 11155, 11156, 
11157, 11158, 11159, 11160, 11161, 11162, 11163, 11164, 11165, 11166, 11167, 11168, 11169, 11170, 11171, 11172, 
11173, 11174, 11175, 11176, 11177, 11178, 11179, 11180, 11181, 11182, 11183, 11184, 11185, 11186, 11187, 11188, 
13102, 13103, 13104, 13105, 13106, 13107, 13108, 13109, 13110, 13111, 13112, 13113, 13114, 13115, 13116, 13117, 
13118, 13119, 13120, 13121, 13122, 13123, 13124, 13125, 13126, 13127, 13128, 13129, 13130, 13131, 13132, 13133, 
13134, 13135, 13136, 13137, 13138, 13139, 13140, 13141, 13142, 13143, 13144, 13145, 13146, 13147, 13148, 13149, 
13150, 13151, 13152, 13153, 13154, 13155, 13156, 13157, 13158, 13159, 13160, 13161, 13162, 13163, 13164, 13165, 
** ... 29 like lines cut
*Nset, Nset=Internal-1_flux_interface
1, 2, 3, 4, 5, 6, 7, 8, 9, 10, 11, 12, 13, 14, 15, 16, 
17, 18, 19, 20, 21, 22, 23, 24, 25, 26, 27, 28, 29, 30, 31, 32, 
33, 34, 35, 36, 37, 38, 39, 40, 41, 42, 43, 44, 45, 46, 47, 48, 
49, 50, 51, 52, 53, 54, 55, 56, 57, 58, 59, 60, 61, 62, 63, 64, 
65, 66, 67, 68, 69, 70, 71, 72, 73, 74, 75, 76, 77, 78, 79, 80, 
81, 82, 83, 84, 85, 86, 87, 88, 89, 90, 91, 92, 93, 94, 95, 96, 
97, 98, 99, 100, 101, 102, 103, 104, 105, 106, 107, 108, 109, 110, 111, 112, 
113, 114, 115, 116, 117, 118, 119, 120, 121, 122, 123, 124, 125, 126, 127, 128, 
129, 130, 131, 132, 133, 134, 135, 136, 137, 138, 139, 140, 141, 142, 143, 144, 
145, 146, 147, 148, 149, 150, 151, 152, 153, 154, 155, 156, 157, 158, 159, 160, 
161, 162, 163, 164, 165, 166, 167, 168, 169, 170, 171, 172, 173, 174, 175, 176, 
177, 178, 179, 180, 181, 182, 183, 184, 185, 186, 187, 188, 189, 190, 191, 192, 
193, 194, 195, 196, 197, 198, 199, 200, 201, 202, 203, 204, 205, 206, 207, 208, 
209, 210, 211, 212, 213, 214, 215, 216, 217, 218, 219, 220, 221, 222, 223, 224, 
225, 226, 227, 228, 229, 230, 231, 232, 233, 234, 235, 236, 237, 238, 239, 240, 
241, 242, 243, 244, 245, 246, 247, 248, 249, 250, 251, 252, 253, 254, 255, 256, 
257, 258, 259, 260, 261, 262, 263, 264, 265, 266, 267, 268, 269, 270, 271, 272, 
273, 274, 275, 276, 277, 278, 279, 280, 281, 282, 283, 284, 285, 286, 287, 288, 
289, 290, 291, 292, 293, 294, 295, 296, 297, 298, 299, 300, 301, 302, 303, 304, 
305, 306, 307, 308, 309, 310, 311, 312, 313, 314, 315, 316, 317, 318, 319, 320, 
** ... 144 like lines cut
**
** Element sets ++++++++++++++++++++++++++++++++++++++++++++
**
*Elset, Elset=chtElems
1, 2, 3, 7, 13, 22, 25, 26, 33, 34, 36, 50, 52, 55, 56, 65, 
77, 84, 87, 99, 103, 104, 107, 120, 121, 127, 129, 142, 154, 170, 173, 192, 
195, 197, 201, 214, 215, 224, 227, 235, 237, 238, 240, 242, 246, 258, 281, 286, 
293, 296, 303, 306, 318, 322, 323, 327, 331, 336, 345, 352, 354, 361, 363, 365, 
367, 377, 382, 385, 395, 406, 407, 408, 410, 416, 421, 423, 425, 427, 446, 451, 
453, 471, 475, 486, 490, 493, 507, 512, 516, 532, 535, 539, 549, 554, 566, 577, 
583, 588, 590, 591, 595, 597, 598, 624, 633, 646, 666, 671, 681, 687, 693, 701, 
719, 734, 738, 746, 755, 767, 778, 781, 785, 797, 808, 810, 818, 828, 874, 894, 
897, 900, 901, 904, 905, 914, 918, 920, 927, 932, 940, 965, 975, 976, 977, 988, 
989, 991, 1006, 1007, 1008, 1013, 1018, 1022, 1029, 1034, 1043, 1044, 1048, 1056, 1058, 1071, 
1083, 1108, 1117, 1118, 1119, 1123, 1132, 1134, 1144, 1147, 1149, 1151, 1171, 1187, 1190, 1204, 
1208, 1212, 1214, 1218, 1223, 1250, 1255, 1265, 1274, 1276, 1277, 1278, 1301, 1302, 1325, 1329, 
1333, 1335, 1348, 1353, 1364, 1367, 1368, 1372, 1377, 1380, 1393, 1396, 1401, 1402, 1403, 1412, 
1416, 1417, 1430, 1440, 1441, 1442, 1478, 1499, 1504, 1505, 1506, 1507, 1509, 1515, 1530, 1533, 
1544, 1553, 1554, 1555, 1561, 1563, 1571, 1577, 1608, 1615, 1620, 1630, 1634, 1645, 1647, 1654, 
1664, 1673, 1686, 1694, 1697, 1698, 1710, 1711, 1743, 1744, 1752, 1754, 1755, 1766, 1784, 1785, 
1788, 1792, 1806, 1812, 1822, 1824, 1839, 1845, 1860, 1870, 1882, 1883, 1884, 1886, 1889, 1890, 
1898, 1904, 1907, 1921, 1922, 1925, 1929, 1935, 1939, 1940, 1943, 1957, 1958, 1963, 1968, 1973, 
1976, 1986, 2006, 2008, 2009, 2015, 2021, 2022, 2030, 2036, 2044, 2047, 2068, 2074, 2087, 2092, 
2093, 2114, 2117, 2121, 2133, 2142, 2148, 2149, 2151, 2166, 2168, 2171, 2173, 2184, 2191, 2195, 
** ... 35 like lines cut
*Elset, Elset=Internal-1_Brood_Fluid_Elems_S4
4986, 4987, 5009, 5043, 5049, 5089, 5104, 5108, 5113, 5114, 5159, 5206, 5221, 5232, 5290, 5313, 
5326, 5338, 5602, 5617, 5712, 5777, 5829, 5839, 5851, 5917, 5964, 6067, 6103, 6205, 6206, 6243, 
6267, 6414, 6633, 6672, 6686, 6733, 6736, 6747, 6797, 7032, 7157, 7238, 7450, 7684, 7752, 7781, 
7821, 7915, 7970, 8152, 8159, 8169, 8406, 8441, 8570, 8593, 8594, 8627, 8635, 8643, 8698, 8699, 
8723, 8787, 8849, 9083, 9125, 9126, 9142, 9192, 9248, 9657, 9674, 9707, 9732, 9881, 10249, 10336, 
10396, 10543, 10850, 10924, 10945, 10969, 11067
*Elset, Elset=Internal-1_Brood_Fluid_Elems_S1
5033, 5084, 5139, 5150, 5220, 5244, 5302, 5365, 5507, 5575, 5644, 5826, 5846, 5849, 5984, 6093, 
6194, 6281, 6338, 6399, 6472, 6669, 6781, 6876, 7030, 7131, 7236, 7280, 7293, 7511, 7626, 7665, 
7756, 7789, 7799, 7808, 7831, 7833, 7904, 7974, 8051, 8079, 8111, 8159, 8362, 8364, 8484, 8572, 
8589, 8921, 8925, 9081, 9097, 9152, 9185, 9196, 9244, 9295, 9742, 9764, 10171, 10372, 10467, 10875, 
10986, 11064
*Elset, Elset=Internal-1_Brood_Fluid_Elems_S3
5049, 5342, 5381, 5442, 5463, 5501, 5514, 5542, 6079, 6083, 6145, 6310, 6403, 6491, 6628, 6679, 
6705, 6886, 7195, 7290, 7358, 7502, 7532, 7652, 7714, 7830, 7857, 7891, 7983, 8166, 8281, 8742, 
8959, 9094, 9119, 9161, 9182, 9238, 9448, 9564, 9580, 9583, 9642, 9652, 9718, 9720, 9956, 10250, 
10485, 10527, 10746, 10794, 10895, 10911, 10929, 11014
*Elset, Elset=Internal-1_Brood_Fluid_Elems_S2
5194, 5248, 5338, 5383, 5384, 5436, 5494, 5680, 6165, 6240, 6555, 6677, 6680, 6707, 6953, 6998, 
7082, 7173, 7242, 7278, 7364, 7640, 7673, 7688, 7742, 7751, 7779, 7849, 7893, 7975, 7979, 8558, 
8579, 8621, 8649, 8704, 8770, 8982, 9041, 9694, 9808, 9831, 10128, 10176, 10399, 10405, 10745, 10821, 
10869, 10995, 11036
*Elset, Elset=Internal-1_flux_interface_S3
1, 7, 36, 52, 55, 99, 127, 352, 361, 367, 421, 446, 512, 965, 1013, 1022, 
1043, 1058, 1364, 1377, 1430, 1478, 1505, 1515, 1555, 1664, 1754, 1812, 1882, 1884, 1886, 1963, 
2047, 2184, 2199, 2231, 2248, 2268, 2337, 2356, 2361, 2365, 2465, 2482, 2494, 2500, 2519, 2521, 
2531, 2546, 2560, 2594, 2630, 2648, 2707, 2827, 2843, 2871, 2889, 2931, 2940, 2965, 2976, 2991, 
3002, 3028, 3172, 3248, 3251, 3347, 3390, 3413, 3463, 3610, 3690, 3731, 3737, 3743, 3760, 3761, 
5049, 5342, 5381, 5442, 5463, 5501, 5514, 5542, 6079, 6083, 6145, 6310, 6403, 6491, 6628, 6679, 
6705, 6886, 7195, 7290, 7358, 7502, 7532, 7652, 7714, 7830, 7857, 7891, 7983, 8166, 8281, 8742, 
8959, 9094, 9119, 9161, 9182, 9238, 9448, 9564, 9580, 9583, 9642, 9652, 9718, 9720, 9956, 10250, 
10485, 10527, 10746, 10794, 10895, 10911, 10929, 11014
*Elset, Elset=Internal-1_flux_interface_S1
2, 22, 26, 34, 52, 65, 84, 103, 104, 107, 192, 195, 197, 214, 224, 227, 
238, 246, 258, 303, 306, 322, 331, 345, 354, 363, 365, 382, 385, 407, 408, 451, 
475, 486, 490, 507, 516, 532, 583, 591, 595, 597, 598, 687, 701, 719, 734, 746, 
767, 808, 818, 874, 901, 914, 920, 932, 975, 976, 988, 991, 1006, 1044, 1071, 1117, 
1118, 1119, 1132, 1214, 1218, 1250, 1265, 1274, 1301, 1325, 1335, 1367, 1372, 1393, 1403, 1417, 
1440, 1499, 1506, 1507, 1530, 1533, 1563, 1571, 1577, 1630, 1645, 1654, 1673, 1686, 1694, 1711, 
1743, 1752, 1766, 1792, 1806, 1822, 1824, 1860, 1883, 1889, 1898, 1925, 1935, 1939, 1957, 1968, 
2015, 2030, 2036, 2092, 2093, 2114, 2133, 2142, 2148, 2166, 2173, 2201, 2215, 2219, 2226, 2253, 
2292, 2303, 2322, 2331, 2368, 2372, 2381, 2389, 2393, 2410, 2411, 2426, 2439, 2440, 2455, 2463, 
2474, 2478, 2513, 2526, 2547, 2550, 2553, 2581, 2584, 2600, 2612, 2620, 2623, 2629, 2646, 2663, 
2670, 2757, 2774, 2820, 2841, 2851, 2873, 2874, 2890, 2891, 2905, 2923, 2939, 2969, 2972, 2986, 
2989, 2999, 3015, 3017, 3022, 3024, 3034, 3050, 3052, 3081, 3099, 3116, 3121, 3130, 3143, 3149, 
3160, 3175, 3181, 3188, 3200, 3208, 3224, 3252, 3277, 3297, 3322, 3325, 3327, 3332, 3352, 3375, 
3404, 3416, 3424, 3435, 3437, 3440, 3477, 3517, 3518, 3524, 3553, 3562, 3589, 3605, 3611, 3612, 
3624, 3635, 3663, 3682, 3718, 3728, 3763, 5033, 5084, 5139, 5150, 5220, 5244, 5302, 5365, 5507, 
5575, 5644, 5826, 5846, 5849, 5984, 6093, 6194, 6281, 6338, 6399, 6472, 6669, 6781, 6876, 7030, 
7131, 7236, 7280, 7293, 7511, 7626, 7665, 7756, 7789, 7799, 7808, 7831, 7833, 7904, 7974, 8051, 
8079, 8111, 8159, 8362, 8364, 8484, 8572, 8589, 8921, 8925, 9081, 9097, 9152, 9185, 9196, 9244, 
9295, 9742, 9764, 10171, 10372, 10467, 10875, 10986, 11064
*Elset, Elset=Internal-1_flux_interface_S4
3, 13, 25, 33, 50, 56, 87, 120, 121, 129, 142, 154, 173, 201, 215, 237, 
240, 242, 286, 293, 296, 318, 323, 327, 336, 395, 416, 423, 425, 427, 453, 493, 
539, 549, 577, 590, 624, 633, 646, 666, 671, 681, 738, 755, 781, 785, 797, 810, 
828, 894, 897, 900, 904, 905, 918, 927, 940, 977, 1008, 1018, 1029, 1034, 1048, 1083, 
1117, 1123, 1134, 1144, 1147, 1151, 1187, 1190, 1212, 1223, 1255, 1276, 1277, 1278, 1329, 1348, 
1353, 1368, 1380, 1396, 1401, 1402, 1416, 1441, 1442, 1544, 1553, 1554, 1561, 1608, 1620, 1647, 
1697, 1710, 1744, 1755, 1784, 1785, 1788, 1839, 1845, 1890, 1904, 1907, 1921, 1929, 1940, 1943, 
1958, 1973, 1986, 2006, 2008, 2009, 2021, 2022, 2044, 2074, 2087, 2171, 2223, 2225, 2263, 2280, 
2293, 2309, 2317, 2340, 2385, 2398, 2403, 2425, 2441, 2443, 2444, 2454, 2456, 2487, 2508, 2510, 
2514, 2544, 2592, 2593, 2596, 2598, 2603, 2678, 2687, 2698, 2710, 2715, 2716, 2717, 2724, 2735, 
2762, 2822, 2828, 2834, 2884, 2896, 2898, 2901, 2925, 2934, 2942, 2958, 2975, 2994, 2996, 3064, 
3087, 3089, 3096, 3107, 3119, 3127, 3132, 3164, 3167, 3180, 3203, 3237, 3260, 3262, 3271, 3280, 
3281, 3304, 3316, 3326, 3362, 3369, 3385, 3419, 3449, 3466, 3489, 3490, 3528, 3532, 3537, 3563, 
3575, 3606, 3608, 3609, 3622, 3639, 3640, 3678, 3727, 4986, 4987, 5009, 5043, 5049, 5089, 5104, 
5108, 5113, 5114, 5159, 5206, 5221, 5232, 5290, 5313, 5326, 5338, 5602, 5617, 5712, 5777, 5829, 
5839, 5851, 5917, 5964, 6067, 6103, 6205, 6206, 6243, 6267, 6414, 6633, 6672, 6686, 6733, 6736, 
6747, 6797, 7032, 7157, 7238, 7450, 7684, 7752, 7781, 7821, 7915, 7970, 8152, 8159, 8169, 8406, 
8441, 8570, 8593, 8594, 8627, 8635, 8643, 8698, 8699, 8723, 8787, 8849, 9083, 9125, 9126, 9142, 
9192, 9248, 9657, 9674, 9707, 9732, 9881, 10249, 10336, 10396, 10543, 10850, 10924, 10945, 10969, 11067
*Elset, Elset=Internal-1_flux_interface_S2
77, 170, 235, 281, 377, 406, 410, 471, 493, 535, 554, 566, 588, 693, 778, 989, 
1007, 1056, 1108, 1149, 1171, 1204, 1208, 1302, 1333, 1412, 1504, 1509, 1615, 1634, 1698, 1870, 
1922, 1976, 2068, 2117, 2121, 2149, 2151, 2168, 2191, 2195, 2258, 2262, 2291, 2330, 2349, 2380, 
2437, 2459, 2467, 2468, 2480, 2489, 2505, 2528, 2529, 2583, 2619, 2741, 2804, 2832, 2862, 2900, 
2918, 2948, 2973, 2974, 2993, 3001, 3023, 3029, 3030, 3109, 3312, 3336, 3483, 3515, 3568, 3595, 
3672, 3673, 3680, 3703, 3732, 3755, 5194, 5248, 5338, 5383, 5384, 5436, 5494, 5680, 6165, 6240, 
6555, 6677, 6680, 6707, 6953, 6998, 7082, 7173, 7242, 7278, 7364, 7640, 7673, 7688, 7742, 7751, 
7779, 7849, 7893, 7975, 7979, 8558, 8579, 8621, 8649, 8704, 8770, 8982, 9041, 9694, 9808, 9831, 
10128, 10176, 10399, 10405, 10745, 10821, 10869, 10995, 11036
**
** Surfaces ++++++++++++++++++++++++++++++++++++++++++++++++
**
*Surface, Name=Brood_Fluid_Elems, Type=Element
Internal-1_Brood_Fluid_Elems_S4, S4
Internal-1_Brood_Fluid_Elems_S1, S1
Internal-1_Brood_Fluid_Elems_S3, S3
Internal-1_Brood_Fluid_Elems_S2, S2
** Name: Brood_Fluid_Nodes: Deactivated
*Surface, Name=Sflux_interface, Type=Element
Internal-1_flux_interface_S3, S3
Internal-1_flux_interface_S1, S1
Internal-1_flux_interface_S4, S4
Internal-1_flux_interface_S2, S2
**
** Physical constants ++++++++++++++++++++++++++++++++++++++
**
**
** Coordinate systems ++++++++++++++++++++++++++++++++++++++
**
**
** Materials +++++++++++++++++++++++++++++++++++++++++++++++
**
*MATERIAL, NAME=Solid
*CONDUCTIVITY
0.120e-3
*ELASTIC
25e6, 0.10
*EXPANSION
7.0e-4
*DENSITY
420e-9
*SPECIFIC HEAT
1530e6
*MATERIAL, NAME=Brood
*CONDUCTIVITY
0.340e-3
*ELASTIC
1.0e6, 0.30
*EXPANSION
1.0e-4
*SPECIFIC HEAT
3526e6
*DENSITY
733.5e-9
**
** Sections ++++++++++++++++++++++++++++++++++++++++++++++++
**
*Solid section, Elset=Solid_part-1, Material=Solid
*Solid section, Elset=Solid_part-2, Material=Brood
**
** Pre-tension sections ++++++++++++++++++++++++++++++++++++
**
**
** Constraints +++++++++++++++++++++++++++++++++++++++++++++
**
**
** Surface interactions ++++++++++++++++++++++++++++++++++++
**
**
** Contact pairs +++++++++++++++++++++++++++++++++++++++++++
**
**
** Amplitudes ++++++++++++++++++++++++++++++++++++++++++++++
**
**
** Initial conditions ++++++++++++++++++++++++++++++++++++++
**
** Name: Brood_Temperature
*Initial conditions, Type=Temperature
Internal_Selection-1_Brood_Temperature, 294.15
** Name: Solid_Temperature
*Initial conditions, Type=Temperature
Internal_Selection-1_Solid_Temperature, 283.15
**
** Steps +++++++++++++++++++++++++++++++++++++++++++++++++++
**

** Step-1 ++++++++++++++++++++++++++++++++++++++++++++++++++
**

*STEP, INC=200000, nlgeom=NO
*HEAT TRANSFER, DIRECT
0.1,21600.0 
**
** Controls ++++++++++++++++++++++++++++++++++++++++++++++++
**
**
** Output frequency ++++++++++++++++++++++++++++++++++++++++
**
*Output, Frequency=1
**
** Boundary conditions +++++++++++++++++++++++++++++++++++++
**
*Boundary, op=New
** Name: B_Temperature
*Boundary
broodchtnodes, 11, 11, 0.0
** Name: S_Temperature
*Boundary
solidchtnodes, 11, 11, 0.0
**
** Loads +++++++++++++++++++++++++++++++++++++++++++++++++++
**
**
** Defined fields ++++++++++++++++++++++++++++++++++++++++++
**
**
** History outputs +++++++++++++++++++++++++++++++++++++++++
**
**
** Field outputs +++++++++++++++++++++++++++++++++++++++++++
**
*Node file
NT
**
** End step ++++++++++++++++++++++++++++++++++++++++++++++++
**
*End step
